Version 4
SHEET 1 2580 2072
WIRE -400 16 -432 16
WIRE -288 16 -320 16
WIRE -256 16 -256 0
WIRE -256 16 -288 16
WIRE -208 16 -256 16
WIRE -512 96 -560 96
WIRE -400 96 -416 96
WIRE -288 96 -336 96
WIRE -208 96 -288 96
WIRE -128 144 -128 96
WIRE -128 144 -144 144
WIRE -32 144 -128 144
WIRE 144 144 32 144
WIRE 256 144 144 144
WIRE 304 144 256 144
WIRE 528 144 400 144
WIRE 624 144 528 144
WIRE 304 176 240 176
WIRE 448 176 400 176
WIRE 448 224 448 176
WIRE 512 224 448 224
WIRE 624 224 512 224
FLAG -208 192 0
FLAG -128 -48 0
FLAG -256 -64 0
FLAG -512 16 0
FLAG -560 176 0
FLAG -512 128 0
FLAG -416 128 0
FLAG 528 144 IN
FLAG -560 96 OUT
FLAG 512 304 0
FLAG -288 160 0
FLAG 256 144 FILT
FLAG 240 176 0
FLAG 144 224 0
SYMBOL npn -144 96 M0
SYMATTR InstName Q1
SYMATTR Value BFU730F
SYMATTR Prefix XN
SYMBOL ind -144 0 R0
SYMATTR InstName L2
SYMATTR Value 22n
SYMBOL ind -272 0 M0
SYMATTR InstName L3
SYMATTR Value 1.1n
SYMBOL cap -144 -48 R0
SYMATTR InstName C3
SYMATTR Value 10n
SYMBOL cap -336 80 R90
WINDOW 0 0 32 VBottom 2
WINDOW 3 32 32 VTop 2
SYMATTR InstName C5
SYMATTR Value 10n
SYMBOL res -112 0 R90
WINDOW 0 0 56 VBottom 2
WINDOW 3 32 56 VTop 2
SYMATTR InstName R3
SYMATTR Value 51k
SYMBOL cap -272 -64 R0
SYMATTR InstName C6
SYMATTR Value 10n
SYMBOL res -304 0 R90
WINDOW 0 0 56 VBottom 2
WINDOW 3 32 56 VTop 2
SYMATTR InstName R4
SYMATTR Value 220
SYMBOL voltage -416 16 R90
WINDOW 0 -32 56 VBottom 2
WINDOW 3 32 56 VTop 2
WINDOW 123 0 0 Left 0
WINDOW 39 0 0 Left 0
SYMATTR InstName V1
SYMATTR Value 3.3
SYMBOL res -544 80 M0
SYMATTR InstName R5
SYMATTR Value 50
SYMBOL tline -464 112 R0
SYMATTR InstName T1
SYMATTR Value Td=51n Z0=50
SYMBOL current 624 224 M180
WINDOW 0 24 80 Left 2
WINDOW 3 24 -56 Left 2
WINDOW 123 24 -28 Left 2
WINDOW 39 0 0 Left 0
SYMATTR InstName I1
SYMATTR Value SINE(0 0 1413Meg)
SYMATTR Value2 AC 1n
SYMBOL tline 352 160 R0
SYMATTR InstName T2
SYMATTR Value Td=0.177n Z0=75
SYMBOL res 496 208 R0
SYMATTR InstName R6
SYMATTR Value 10k
SYMBOL cap -272 96 M0
SYMATTR InstName C2
SYMATTR Value 11p
SYMBOL res 128 128 R0
SYMATTR InstName R1
SYMATTR Value 86
SYMBOL cap 32 160 M270
WINDOW 0 32 32 VTop 2
WINDOW 3 0 32 VBottom 2
SYMATTR InstName C4
SYMATTR Value 1n
TEXT 928 -120 Left 2 !*               NXP Semiconductors                                                                                                                              \n*               GUMMEL-POON Transistor MODEL IN SPICE SYNTAX                                                                    \n*               BFU730F Model in SOT343F                                                                                                        \n*               VALID UP TO 4 GHZ                                                                                               \n*               October 2010                                                                                                                                    \n*               This file includes parameters for chip of BFU730 in package SOT343F.\n*               BEGIN OF MODEL-DEFINITIONS                                                                                                                      \n*               transistor:BFU730F\n*               1:COLLECTOR; 2: BASE; 3: EMITTER                                                                                                                                                                                \n*               .OPTION TNOM = 25, \n \n.SUBCKT BFU730F 1 2 3                           \nQ1 11 22 33 33 Chip_730 Area=1 Region=1 Temp=25 Trise=0 Mode=1 Noise=yes M=3\n \n*package SOT343F                                \n \nRb2x            22 24           1.07413\nRc2x            11 12           1.0494\nLb2x            22 24           6.6493e-11\nLc2x            11 12           6.67134e-11\nCbe1            25 33           1.575795e-13\nCbe2            22 23           6.4818e-014\nCce1            13 33           1.3083644e-13\nCce2            11 14           4.91284e-14\nCbc1            25 28           3.101589e-15\nCbc2            15 22           9.55071e-15\nLb1              2 25           2.82948e-10\nLb2             24 25           7.31262e-10\nLc1              1 13           4.805e-15\nLc2             12 13           3.84827e-10\nLe1              3 33           7.94063e-11\nRbc2            11 15           147.447\nRbc1            13 28           855.844\nRbe2            23 33           7.31739\nRce2            14 33           8.25899                                                                                         \n                                                                                                                                                \n.MODEL Chip_730 NPN\n+               Is   = 59.79E-18 \n+               Bf   = 275.1 \n+               Nf   = 992.6e-3 \n+               Vaf  = 10.34  \n+               Ikf  = 24.45e-3 \n+               Ise  = 24.75e-15 \n+               Ne   = 2.024  \n+               Br   = 81.44  \n+               Nr   = 980.0e-3 \n+               Var  = 4.245  \n+               Ikr  = 3.620e-3 \n+               Isc  = 100.0e-18 \n+               Nc   = 1.578  \n+               Rb   = 3.32 \n+               Irb  = 12.17e-3\n+               Rbm  = 1.2 \n+               Re   = 1.841  \n+               Rc   = 50.31  \n+               Cje  = 70.04e-15 \n+               Vje  = 665.6e-3 \n+               Mje  = 109.9e-3 \n+               Cjc  = 21.67e-15 \n+               Vjc  = 639.9e-3 \n+               Mjc  = 267.9e-3 \n+               Xcjc = 1.000  \n+               Cjs  = 298.9e-15 \n+               Vjs  = 360.9e-3\n+               Mjs  = 661.7e-3 \n+               Fc   = 500.0e-3\n+               Xtf  = 43.92 \n+               Tf   = 1.3236e-12\n+               Vtf  = -17.68 \n+               Itf  = 89e-3 \n+               Ptf  = 75.6 \n+               Tr   = 1.7e-12 \n+               Eg   = 1.110  \n+               Xtb  = 0.000  \n+               Xti  = 3.000  \n.ENDS
TEXT -232 456 Left 2 !.tran 1m
