Version 4
SHEET 1 1180 680
WIRE 880 -608 -480 -608
WIRE 80 -528 -160 -528
WIRE -16 -512 -112 -512
WIRE -16 -496 -16 -512
WIRE -160 -448 -160 -528
WIRE -96 -448 -160 -448
WIRE 96 -448 64 -448
WIRE -96 -400 -160 -400
WIRE 80 -400 80 -528
WIRE 176 -384 112 -384
WIRE 352 -384 240 -384
WIRE 368 -384 352 -384
WIRE 352 -368 352 -384
WIRE -112 -352 -112 -512
WIRE -112 -352 -128 -352
WIRE -96 -352 -112 -352
WIRE -112 -336 -112 -352
WIRE -16 -336 -16 -352
WIRE -16 -336 -112 -336
WIRE -160 -288 -160 -400
WIRE 112 -288 112 -384
WIRE 112 -288 -160 -288
WIRE 96 -224 96 -448
WIRE 96 -224 -32 -224
WIRE 400 -192 96 -192
WIRE 496 -192 464 -192
WIRE 592 -192 560 -192
WIRE -544 -144 -544 -160
WIRE -544 -144 -640 -144
WIRE 352 -128 352 -288
WIRE 448 -128 352 -128
WIRE 496 -128 448 -128
WIRE 592 -128 560 -128
WIRE 256 16 160 16
WIRE -288 32 -384 32
WIRE 256 32 256 16
WIRE -32 48 -32 -224
WIRE -16 48 -32 48
WIRE -80 64 -80 16
WIRE -16 64 -80 64
WIRE 96 64 96 -192
WIRE 96 64 48 64
WIRE -16 80 -32 80
WIRE 176 80 112 80
WIRE -80 96 -80 64
WIRE -32 96 -32 80
WIRE -16 96 -32 96
WIRE 80 96 64 96
WIRE -32 112 -32 96
WIRE -16 112 -32 112
WIRE -480 128 -480 -608
WIRE -384 128 -384 112
WIRE -384 128 -480 128
WIRE -32 128 -32 112
WIRE 16 128 16 112
WIRE 16 128 -32 128
WIRE 80 128 80 96
WIRE 80 128 16 128
WIRE 96 128 96 64
WIRE 176 128 96 128
WIRE 384 128 352 128
WIRE 448 128 448 -128
WIRE 448 128 384 128
WIRE 16 144 16 128
WIRE 160 176 160 16
WIRE 160 176 144 176
WIRE 176 176 160 176
WIRE 160 192 160 176
WIRE 256 192 256 176
WIRE 256 192 160 192
WIRE -272 208 -384 208
WIRE 96 224 96 128
WIRE 208 224 96 224
WIRE 384 224 384 128
WIRE 400 224 384 224
WIRE 112 240 112 80
WIRE 112 240 0 240
WIRE 208 240 112 240
WIRE 400 240 272 240
WIRE 480 240 464 240
WIRE 576 240 560 240
WIRE 608 240 576 240
WIRE 720 240 688 240
WIRE 768 240 720 240
WIRE 880 240 880 -608
WIRE 880 240 848 240
WIRE -640 256 -640 -144
WIRE -384 256 -384 208
WIRE -384 256 -640 256
WIRE 208 256 192 256
WIRE 400 256 384 256
WIRE 576 256 576 240
WIRE 720 256 720 240
WIRE 880 256 880 240
WIRE 192 272 192 256
WIRE 208 272 192 272
WIRE 304 272 288 272
WIRE 384 272 384 256
WIRE 400 272 384 272
WIRE 496 272 480 272
WIRE -1696 288 -1808 288
WIRE 192 288 192 272
WIRE 208 288 192 288
WIRE 384 288 384 272
WIRE 400 288 384 288
WIRE -1696 304 -1888 304
WIRE -1536 304 -1632 304
WIRE -1360 304 -1456 304
WIRE -1216 304 -1296 304
WIRE -1088 304 -1216 304
WIRE -464 304 -992 304
WIRE -352 304 -464 304
WIRE -272 304 -272 288
WIRE -272 304 -288 304
WIRE -208 304 -272 304
WIRE 0 304 0 240
WIRE 0 304 -80 304
WIRE 192 304 192 288
WIRE 240 304 240 288
WIRE 240 304 192 304
WIRE 304 304 304 272
WIRE 304 304 240 304
WIRE 384 304 384 288
WIRE 432 304 432 288
WIRE 432 304 384 304
WIRE 496 304 496 272
WIRE 496 304 432 304
WIRE -1696 320 -1712 320
WIRE -464 320 -464 304
WIRE 240 320 240 304
WIRE 432 320 432 304
WIRE -1712 336 -1712 320
WIRE -1696 336 -1712 336
WIRE -1600 336 -1616 336
WIRE 576 336 576 320
WIRE 720 336 720 320
WIRE 880 336 880 320
WIRE -1712 352 -1712 336
WIRE -1696 352 -1712 352
WIRE -1888 368 -1888 304
WIRE -1808 368 -1808 288
WIRE -1712 368 -1712 352
WIRE -1664 368 -1664 352
WIRE -1664 368 -1712 368
WIRE -1600 368 -1600 336
WIRE -1600 368 -1664 368
WIRE -1664 384 -1664 368
FLAG -1888 448 0
FLAG 240 320 0
FLAG 576 336 0
FLAG 720 336 0
FLAG 144 176 0
FLAG -1664 384 0
FLAG -1808 448 0
FLAG 432 320 0
FLAG -288 128 0
FLAG 240 -368 0
FLAG -80 176 0
FLAG -80 -144 0
FLAG -544 -240 0
FLAG 592 -128 pps
FLAG 880 240 fb
FLAG 592 -192 clk
FLAG 496 -112 0
FLAG 496 -176 0
FLAG -128 -352 0
FLAG 16 144 0
FLAG 880 336 0
FLAG -384 -48 0
FLAG -464 400 0
FLAG -208 320 0
FLAG -144 320 0
FLAG 400 -176 0
FLAG -1088 336 0
FLAG -992 336 0
FLAG 432 -384 0
FLAG -1216 368 0
SYMBOL voltage -1888 352 M0
WINDOW 123 0 0 Left 0
WINDOW 39 0 0 Left 0
SYMATTR InstName V2
SYMATTR Value PULSE(0 3.3 0 2n 2n 18n 40.000n)
SYMBOL Digital\\xor 256 192 R0
SYMATTR InstName A1
SYMATTR Value2 Vhigh=3.3 Ref=1.65 td=4.4ns
SYMBOL cap 560 256 R0
SYMATTR InstName C1
SYMATTR Value 100n
SYMBOL cap 704 256 R0
SYMATTR InstName C2
SYMATTR Value 330n
SYMBOL res 704 224 R90
WINDOW 0 0 56 VBottom 2
WINDOW 3 32 56 VTop 2
SYMATTR InstName R1
SYMATTR Value 100
SYMBOL Digital\\dflop 256 32 R0
SYMATTR InstName A2
SYMATTR Value2 Vhigh=3.3 Ref=1.65 td=5.5ns
SYMBOL Digital\\xor -1648 256 R0
SYMATTR InstName A5
SYMATTR Value2 Vhigh=3.3 Ref=1.65 td=4.4ns
SYMBOL voltage -1808 352 R0
WINDOW 123 0 0 Left 0
WINDOW 39 0 0 Left 0
SYMATTR InstName V3
SYMATTR Value PULSE(0 3.3 2n 2n 2n 100u 1m)
SYMBOL Digital\\xor 448 192 R0
SYMATTR InstName A6
SYMATTR Value2 Vhigh=3.3 Ref=1.65 td=4.4ns
SYMBOL SpecialFunctions\\modulate -288 32 R0
WINDOW 3 0 0 Invisible 0
SYMATTR Value mark=25.00125Meg space=24.99875Meg
SYMATTR InstName A7
SYMBOL Digital\\inv 240 -448 M0
SYMATTR InstName A8
SYMATTR Value2 Vhigh=3.3 Ref=1.65 td=4.4ns
SYMBOL cap -80 48 R90
WINDOW 0 0 32 VBottom 2
WINDOW 3 32 32 VTop 2
SYMATTR InstName C3
SYMATTR Value 1n
SYMBOL res -96 -80 R0
SYMATTR InstName R2
SYMATTR Value 66k
SYMBOL res -96 80 R0
SYMATTR InstName R3
SYMATTR Value 66k
SYMBOL voltage -80 -48 R180
WINDOW 0 24 96 Left 2
WINDOW 3 24 16 Left 2
WINDOW 123 0 0 Left 0
WINDOW 39 0 0 Left 0
SYMATTR InstName V4
SYMATTR Value 3.3
SYMBOL voltage -544 -144 R180
WINDOW 0 24 96 Left 2
WINDOW 3 24 16 Left 2
WINDOW 123 0 0 Left 0
WINDOW 39 0 0 Left 0
SYMATTR InstName V1
SYMATTR Value 1.65
SYMBOL Digital\\inv 496 -256 R0
SYMATTR InstName A3
SYMATTR Value2 Vhigh=3.3 Ref=1.65 td=4.4ns
SYMBOL Digital\\inv 496 -192 R0
SYMATTR InstName A4
SYMATTR Value2 Vhigh=3.3 Ref=1.65 td=4.4ns
SYMBOL Digital\\dflop -16 -496 R0
SYMATTR InstName A11
SYMATTR Value2 Vhigh=3.3 Ref=1.65 td=5.5ns
SYMBOL Digital\\xor 32 16 R0
SYMATTR InstName A12
SYMATTR Value2 Vhigh=3.3 Ref=1.65 td=4.4ns
SYMBOL res 864 224 R90
WINDOW 0 0 56 VBottom 2
WINDOW 3 32 56 VTop 2
SYMATTR InstName R4
SYMATTR Value 220
SYMBOL cap 864 256 R0
SYMATTR InstName C6
SYMATTR Value 1µ
SYMBOL res -400 16 R0
SYMATTR InstName R5
SYMATTR Value 69k
SYMBOL res -400 -64 R0
SYMATTR InstName R10
SYMATTR Value 30k
SYMBOL res -1440 288 R90
WINDOW 0 0 56 VBottom 2
WINDOW 3 32 56 VTop 2
SYMATTR InstName R12
SYMATTR Value 50
SYMBOL res -480 304 R0
SYMATTR InstName R13
SYMATTR Value 50
SYMBOL Digital\\inv -208 240 R0
SYMATTR InstName A9
SYMATTR Value2 Vhigh=3.3 Ref=1.65 td=4.4ns
SYMBOL Digital\\inv -144 240 R0
SYMATTR InstName A13
SYMATTR Value2 Vhigh=3.3 Ref=1.65 td=4.4ns
SYMBOL cap -288 288 R90
WINDOW 0 0 32 VBottom 2
WINDOW 3 32 32 VTop 2
SYMATTR InstName C10
SYMATTR Value 1n
SYMBOL res -288 192 R0
SYMATTR InstName R11
SYMATTR Value 33k
SYMBOL res 576 224 R90
WINDOW 0 0 56 VBottom 2
WINDOW 3 32 56 VTop 2
SYMATTR InstName R16
SYMATTR Value 47
SYMBOL Digital\\inv 400 -256 R0
SYMATTR InstName A16
SYMATTR Value2 Vhigh=3.3 Ref=1.65 td=4.4ns
SYMBOL cap -1296 288 R90
WINDOW 0 0 32 VBottom 2
WINDOW 3 32 32 VTop 2
SYMATTR InstName C4
SYMATTR Value 10n
SYMBOL tline -1040 320 R0
SYMATTR InstName T1
SYMBOL cap 432 -400 R90
WINDOW 0 0 32 VBottom 2
WINDOW 3 32 32 VTop 2
SYMATTR InstName C5
SYMATTR Value 10n
SYMBOL res 368 -272 R180
WINDOW 0 36 76 Left 2
WINDOW 3 36 40 Left 2
SYMATTR InstName R6
SYMATTR Value 47k
SYMBOL cap -1232 304 R0
SYMATTR InstName C7
SYMATTR Value 330p
TEXT -624 120 Left 2 !.tran 10m
